Sistemas teste e codigos/MetodoDireto_SemQlim/Sistemas/NETS_NYPS_vb.cdf
 0 /0 /0  **** New-England / N  100.0                                                                                         
BUS DATA FOLLOWS                       68 ITEMS                                                                               
   1  Barra01      2     2  1.045      0        0         0     250       0     1.0           9999    -999     0.0     0.0  0.0
   2  Barra02      2     2  0.980      0        0         0     545       0     1.0           9999    -999     0.0     0.0  0.0
   3  Barra03      2     2  0.983      0        0         0     650       0     1.0           9999    -999     0.0     0.0  0.0
   4  Barra04      2     2  0.997      0        0         0     632       0     1.0           9999    -999     0.0     0.0  0.0
   5  Barra05      2     2  1.011      0        0         0     505       0     1.0           9999    -999     0.0     0.0  0.0
   6  Barra06      2     2  1.050      0        0         0     700       0     1.0           9999    -999     0.0     0.0  0.0
   7  Barra07      2     2  1.063      0        0         0     560       0     1.0           9999    -999     0.0     0.0  0.0
   8  Barra08      2     2  1.030      0        0         0     540       0     1.0           9999    -999     0.0     0.0  0.0
   9  Barra09      2     2  1.025      0        0         0     800       0     1.0           9999    -999     0.0     0.0  0.0
  10  Barra10      1     2  1.010      0        0         0     500       0     1.0           9999    -999     0.0     0.0  0.0
  11  Barra11      1     2  1.000      0        0         0    1000       0     1.0           9999    -999     0.0     0.0  0.0
  12  Barra12      1     2  1.015      0        0         0    1350       0     1.0           9999    -999     0.0     0.0  0.0
  13  Barra13      1     2  1.011      0        0         0    3591       0     1.0           9999    -999     0.0     0.0  0.0
  14  Barra14      3     2  1.000      0        0         0    1785       0     1.0           9999    -999     0.0     0.0  0.0
  15  Barra15      4     2  1.000      0        0         0    1000       0     1.0           9999    -999     0.0     0.0  0.0
  16  Barra16      5     3  1.000      0        0         0    4000       0     1.0           9999    -999     0.0     0.0  0.0
  17  Barra17      1     0  1.000      0     6000       300       0       0     1.0            0.0     0.0     0.0     0.0  0.0
  18  Barra18      5     0  1.000      0     2470       123       0       0     1.0            0.0     0.0     0.0     0.0  0.0
  19  Barra19      2     0  1.000      0        0         0       0       0     1.0            0.0     0.0     0.0     0.0  0.0
  20  Barra20      2     0  1.000      0      680       103       0       0     1.0            0.0     0.0     0.0     0.0  0.0
  21  Barra21      2     0  1.000      0      274       115       0       0     1.0            0.0     0.0     0.0     0.0  0.0
  22  Barra22      2     0  1.000      0        0         0       0       0     1.0            0.0     0.0     0.0     0.0  0.0
  23  Barra23      2     0  1.000      0      248        85       0       0     1.0            0.0     0.0     0.0     0.0  0.0
  24  Barra24      2     0  1.000      0      309       -92       0       0     1.0            0.0     0.0     0.0     0.0  0.0
  25  Barra25      2     0  1.000      0      224        47       0       0     1.0            0.0     0.0     0.0     0.0  0.0
  26  Barra26      2     0  1.000      0      139        17       0       0     1.0            0.0     0.0     0.0     0.0  0.0
  27  Barra27      2     0  1.000      0      281        76       0       0     1.0            0.0     0.0     0.0     0.0  0.0
  28  Barra28      2     0  1.000      0      206        28       0       0     1.0            0.0     0.0     0.0     0.0  0.0
  29  Barra29      2     0  1.000      0      284        27       0       0     1.0            0.0     0.0     0.0     0.0  0.0
  30  Barra30      1     0  1.000      0        0         0       0       0     1.0            0.0     0.0     0.0     0.0  0.0
  31  Barra31      1     0  1.000      0        0         0       0       0     1.0            0.0     0.0     0.0     0.0  0.0
  32  Barra32      1     0  1.000      0        0         0       0       0     1.0            0.0     0.0     0.0     0.0  0.0
  33  Barra33      1     0  1.000      0      112         0       0       0     1.0            0.0     0.0     0.0     0.0  0.0
  34  Barra34      1     0  1.000      0        0         0       0       0     1.0            0.0     0.0     0.0     0.0  0.0
  35  Barra35      1     0  1.000      0        0         0       0       0     1.0            0.0     0.0     0.0     0.0  0.0
  36  Barra36      1     0  1.000      0      102     -19.5       0       0     1.0            0.0     0.0     0.0     0.0  0.0
  37  Barra37      2     0  1.000      0        0         0       0       0     1.0            0.0     0.0     0.0     0.0  0.0
  38  Barra38      1     0  1.000      0        0         0       0       0     1.0            0.0     0.0     0.0     0.0  0.0
  39  Barra39      1     0  1.000      0      267      12.6       0       0     1.0            0.0     0.0     0.0     0.0  0.0
  40  Barra40      1     0  1.000      0    65.63     23.53       0       0     1.0            0.0     0.0     0.0     0.0  0.0
  41  Barra41      3     0  1.000      0     1000       250       0       0     1.0            0.0     0.0     0.0     0.0  0.0
  42  Barra42      4     0  1.000      0     1150       250       0       0     1.0            0.0     0.0     0.0     0.0  0.0
  43  Barra43      1     0  1.000      0        0         0       0       0     1.0            0.0     0.0     0.0     0.0  0.0
  44  Barra44      1     0  1.000      0    267.6      4.84       0       0     1.0            0.0     0.0     0.0     0.0  0.0
  45  Barra45      1     0  1.000      0      208        21       0       0     1.0            0.0     0.0     0.0     0.0  0.0
  46  Barra46      1     0  1.000      0    150.7      28.5       0       0     1.0            0.0     0.0     0.0     0.0  0.0
  47  Barra47      1     0  1.000      0    203.1     32.59       0       0     1.0            0.0     0.0     0.0     0.0  0.0
  48  Barra48      1     0  1.000      0    241.2       2.2       0       0     1.0            0.0     0.0     0.0     0.0  0.0
  49  Barra49      1     0  1.000      0      164        29       0       0     1.0            0.0     0.0     0.0     0.0  0.0
  50  Barra50      1     0  1.000      0      100      -147       0       0     1.0            0.0     0.0     0.0     0.0  0.0
  51  Barra51      1     0  1.000      0      337      -122       0       0     1.0            0.0     0.0     0.0     0.0  0.0
  52  Barra52      2     0  1.000      0      158        30       0       0     1.0            0.0     0.0     0.0     0.0  0.0
  53  Barra53      1     0  1.000      0    252.7     118.6       0       0     1.0            0.0     0.0     0.0     0.0  0.0
  54  Barra54      2     0  1.000      0        0         0       0       0     1.0            0.0     0.0     0.0     0.0  0.0
  55  Barra55      2     0  1.000      0      322         2       0       0     1.0            0.0     0.0     0.0     0.0  0.0
  56  Barra56      2     0  1.000      0      200      73.6       0       0     1.0            0.0     0.0     0.0     0.0  0.0
  57  Barra57      2     0  1.000      0        0         0       0       0     1.0            0.0     0.0     0.0     0.0  0.0
  58  Barra58      2     0  1.000      0        0         0       0       0     1.0            0.0     0.0     0.0     0.0  0.0
  59  Barra59      2     0  1.000      0      234        84       0       0     1.0            0.0     0.0     0.0     0.0  0.0
  60  Barra60      2     0  1.000      0    208.8      70.8       0       0     1.0            0.0     0.0     0.0     0.0  0.0
  61  Barra61      1     0  1.000      0      104       125       0       0     1.0            0.0     0.0     0.0     0.0  0.0
  62  Barra62      2     0  1.000      0        0         0       0       0     1.0            0.0     0.0     0.0     0.0  0.0
  63  Barra63      2     0  1.000      0        0         0       0       0     1.0            0.0     0.0     0.0     0.0  0.0
  64  Barra64      2     0  1.000      0        9        88       0       0     1.0            0.0     0.0     0.0     0.0  0.0
  65  Barra17      2     0  1.000      0        0         0       0       0     1.0            0.0     0.0     0.0     0.0  0.0
  66  Barra19      2     0  1.000      0        0         0       0       0     1.0            0.0     0.0     0.0     0.0  0.0
  67  Barra67      2     0  1.000      0      320       153       0       0     1.0            0.0     0.0     0.0     0.0  0.0
  68  Barra68      2     0  1.000      0      329        32       0       0     1.0            0.0     0.0     0.0     0.0  0.0
-999
BRANCH DATA FOLLOWS                    83 ITEMS                                                                               
   1   54                   0     0.0181       0.0                           1.025     0.0                                    
   2   58                   0      0.025       0.0                            1.07     0.0                                    
   3   62                   0       0.02       0.0                            1.07     0.0                                    
   4   19              0.0007     0.0142       0.0                            1.07     0.0                                    
   5   20              0.0009      0.018       0.0                           1.009     0.0                                    
   6   22                   0     0.0143       0.0                           1.025     0.0                                    
   7   23              0.0005     0.0272       0.0                             0.0     0.0                                    
   8   25              0.0006     0.0232       0.0                           1.025     0.0                                    
   9   29              0.0008     0.0156       0.0                           1.025     0.0                                    
  10   31                   0      0.026       0.0                            1.04     0.0                                    
  11   32                   0      0.013       0.0                            1.04     0.0                                    
  12   36                   0     0.0075       0.0                            1.04     0.0                                    
  13   17                   0     0.0033       0.0                            1.04     0.0                                    
  14   41                   0     0.0015       0.0                               1     0.0                                    
  15   42                   0     0.0015       0.0                               1     0.0                                    
  16   18                   0      0.003       0.0                               1     0.0                                    
  17   36              0.0005     0.0045      0.32                             0.0     0.0                                    
  18   49              0.0076     0.1141      1.16                             0.0     0.0                                    
  18   50              0.0012     0.0288      2.06                             0.0     0.0                                    
  19   68              0.0016     0.0195     0.304                             0.0     0.0                                    
  20   19              0.0007     0.0138       0.0                            1.06     0.0                                    
  21   68              0.0008     0.0135    0.2548                             0.0     0.0                                    
  22   21              0.0008      0.014    0.2565                             0.0     0.0                                    
  23   22              0.0006     0.0096    0.1846                             0.0     0.0                                    
  24   23              0.0022      0.035     0.361                             0.0     0.0                                    
  24   68              0.0003     0.0059     0.068                             0.0     0.0                                    
  25   54               0.007     0.0086     0.146                             0.0     0.0                                    
  26   25              0.0032     0.0323     0.531                             0.0     0.0                                    
  27   37              0.0013     0.0173    0.3216                             0.0     0.0                                    
  27   26              0.0014     0.0147    0.2396                             0.0     0.0                                    
  28   26              0.0043     0.0474    0.7802                             0.0     0.0                                    
  29   26              0.0057     0.0625     1.029                             0.0     0.0                                    
  29   28              0.0014     0.0151     0.249                             0.0     0.0                                    
  30   53              0.0008     0.0074      0.48                             0.0     0.0                                    
  30   61             0.00095     0.0091      0.58                             0.0     0.0                                    
  31   30              0.0013     0.0187     0.333                             0.0     0.0                                    
  31   53              0.0016     0.0163      0.25                             0.0     0.0                                    
  32   30              0.0024     0.0288     0.488                             0.0     0.0                                    
  33   32              0.0008     0.0099     0.168                             0.0     0.0                                    
  34   33              0.0011     0.0157     0.202                             0.0     0.0                                    
  34   35              0.0001     0.0074       0.0                           0.946     0.0                                    
  36   34              0.0033     0.0111      1.45                             0.0     0.0                                    
  36   61              0.0011     0.0098      0.68                             0.0     0.0                                    
  37   68              0.0007     0.0089    0.1342                             0.0     0.0                                    
  38   31              0.0011     0.0147     0.247                             0.0     0.0                                    
  38   33              0.0036     0.0444     0.693                             0.0     0.0                                    
  40   41               0.006      0.084      3.15                             0.0     0.0                                    
  40   48               0.002      0.022      1.28                             0.0     0.0                                    
  41   42               0.004       0.06      2.25                             0.0     0.0                                    
  42   18               0.004       0.06      2.25                             0.0     0.0                                    
  43   17              0.0005     0.0276       0.0                             0.0     0.0                                    
  44   39                   0     0.0411       0.0                             0.0     0.0                                    
  44   43              0.0001     0.0011       0.0                             0.0     0.0                                    
  45   35              0.0007     0.0175      1.39                             0.0     0.0                                    
  45   39                   0     0.0839       0.0                             0.0     0.0                                    
  45   44              0.0025      0.073       0.0                             0.0     0.0                                    
  46   38              0.0022     0.0284      0.43                             0.0     0.0                                    
  47   53              0.0013     0.0188      1.31                             0.0     0.0                                    
  48   47             0.00125     0.0134       0.8                             0.0     0.0                                    
  49   46              0.0018     0.0274      0.27                             0.0     0.0                                    
  51   45              0.0004     0.0105      0.72                             0.0     0.0                                    
  51   50              0.0009     0.0221      1.62                             0.0     0.0                                    
  52   37              0.0007     0.0082    0.1319                             0.0     0.0                                    
  52   55              0.0011     0.0133    0.2138                             0.0     0.0                                    
  54   53              0.0035     0.0411    0.6987                             0.0     0.0                                    
  55   54              0.0013     0.0151    0.2572                             0.0     0.0                                    
  56   55              0.0013     0.0213    0.2214                             0.0     0.0                                    
  57   56              0.0008     0.0128    0.1342                             0.0     0.0                                    
  58   57              0.0002     0.0026    0.0434                             0.0     0.0                                    
  59   58              0.0006     0.0092     0.113                             0.0     0.0                                    
  60   57              0.0008     0.0112    0.1476                             0.0     0.0                                    
  60   59              0.0004     0.0046     0.078                             0.0     0.0                                    
  61   60              0.0023     0.0363    0.3804                             0.0     0.0                                    
  63   58              0.0007     0.0082    0.1389                             0.0     0.0                                    
  63   62              0.0004     0.0043    0.0729                             0.0     0.0                                    
  63   64              0.0016     0.0435       0.0                            1.06     0.0                                    
  65   62              0.0004     0.0043    0.0729                             0.0     0.0                                    
  65   64              0.0016     0.0435       0.0                            1.06     0.0                                    
  66   56              0.0008     0.0129    0.1382                             0.0     0.0                                    
  66   65              0.0009     0.0101    0.1723                             0.0     0.0                                    
  67   66              0.0018     0.0217     0.366                             0.0     0.0                                    
  68   67              0.0009     0.0094     0.171                             0.0     0.0                                    
  27   53               0.032       0.32      0.41                             0.0     0.0                                    
-999
END OF DATA
